Version 4
SHEET 1 1384 680
WIRE 864 -112 816 -112
WIRE 752 -96 704 -96
WIRE 1040 -80 1008 -80
WIRE 1200 -80 1120 -80
WIRE 400 -48 400 -64
WIRE 496 -48 496 -64
WIRE 704 0 704 -96
WIRE 768 0 704 0
WIRE 864 0 864 -112
WIRE 864 0 848 0
WIRE 896 0 864 0
WIRE 1008 0 1008 -80
WIRE 1008 0 976 0
WIRE 704 32 704 0
WIRE 400 48 400 32
WIRE 400 48 336 48
WIRE 496 48 496 32
WIRE 560 48 496 48
WIRE 1008 48 1008 0
WIRE 1056 48 1008 48
WIRE 1200 64 1200 -80
WIRE 1200 64 1120 64
WIRE 1232 64 1200 64
WIRE 400 80 400 48
WIRE 496 80 496 48
WIRE 1056 80 1008 80
WIRE -48 112 -48 96
WIRE 704 144 704 112
WIRE 768 144 704 144
WIRE 864 144 848 144
WIRE 896 144 864 144
WIRE 1008 144 1008 80
WIRE 1008 144 976 144
WIRE 1040 144 1008 144
WIRE 1040 160 1040 144
WIRE 400 176 400 160
WIRE 496 176 496 160
WIRE 704 240 704 144
WIRE 752 240 704 240
WIRE 864 256 864 144
WIRE 864 256 816 256
FLAG 400 -64 0
FLAG 496 -64 0
FLAG 496 176 0
FLAG 400 176 0
FLAG 336 48 R-Therm
FLAG 560 48 R-Ref
FLAG -48 112 0
FLAG -48 16 +5V
FLAG 784 288 0
FLAG 784 -80 0
FLAG 1088 96 0
FLAG 784 224 +5V
FLAG 784 -144 +5V
FLAG 1088 32 +5V
FLAG 1232 64 Output-1k
FLAG 1040 240 0
FLAG 752 272 R-Therm
FLAG 752 -128 R-Ref
SYMBOL current 400 -48 R0
WINDOW 123 0 0 Left 0
WINDOW 39 0 0 Left 0
SYMATTR InstName I1
SYMATTR Value 1mA
SYMBOL current 496 -48 R0
WINDOW 123 0 0 Left 0
WINDOW 39 0 0 Left 0
SYMATTR InstName I2
SYMATTR Value 1mA
SYMBOL res 416 176 R180
WINDOW 0 36 76 Left 2
WINDOW 3 36 40 Left 2
SYMATTR InstName R1
SYMATTR Value R = time*(100)
SYMBOL res 480 64 R0
SYMATTR InstName R2
SYMATTR Value 1k
SYMBOL voltage -48 0 R0
WINDOW 123 0 0 Left 0
WINDOW 39 0 0 Left 0
SYMATTR InstName V1
SYMATTR Value 5
SYMBOL res 688 16 R0
SYMATTR InstName R3
SYMATTR Value 11k
SYMBOL res 864 -16 R90
WINDOW 0 0 56 VBottom 2
WINDOW 3 32 56 VTop 2
SYMATTR InstName R4
SYMATTR Value 11k
SYMBOL res 752 160 R270
WINDOW 0 32 56 VTop 2
WINDOW 3 0 56 VBottom 2
SYMATTR InstName R5
SYMATTR Value 11k
SYMBOL res 992 -16 R90
WINDOW 0 0 56 VBottom 2
WINDOW 3 32 56 VTop 2
SYMATTR InstName R6
SYMATTR Value 5.6k
SYMBOL res 880 160 R270
WINDOW 0 32 56 VTop 2
WINDOW 3 0 56 VBottom 2
SYMATTR InstName R7
SYMATTR Value 5.6k
SYMBOL res 1136 -96 R90
WINDOW 0 0 56 VBottom 2
WINDOW 3 32 56 VTop 2
SYMATTR InstName R8
SYMATTR Value 24k
SYMBOL res 1024 144 R0
SYMATTR InstName R9
SYMATTR Value 24k
SYMBOL OpAmps\\AD8554 784 192 R0
SYMATTR InstName U1
SYMBOL OpAmps\\AD8554 784 -48 M180
SYMATTR InstName U2
SYMBOL OpAmps\\AD8554 1088 0 R0
SYMATTR InstName U3
TEXT -64 208 Left 2 !.tran 30 startup uic
TEXT 192 224 Left 2 ;R increases by 100 every second
